LAMMPS (22 Aug 2018)
units lj
dimension 2
atom_style body nparticle 2 6
read_data data.body
  orthogonal box = (-15.5322 -15.5322 -0.5) to (15.5322 15.5322 0.5)
  reading atoms ...
  100 atoms
  100 bodies
velocity all create 1.44 87287 loop geom
pair_style body/nparticle 5.0
pair_coeff * * 1.0 1.0
neighbor 0.5 bin
neigh_modify every 1 delay 0 check yes
fix 1 all nve/body
fix 2 all enforce2d
compute 1 all body/local type 1 2 3
dump 1 all local 100 dump.body index c_1[1] c_1[2] c_1[3] c_1[4]
dump 2 all movie 1000 mov.mp4 type type zoom 1.6 adiam 1.5 body type 1.0 0
dump_modify 2 pad 5
thermo 100
run 10000
  update every 1 steps, delay 0 steps, check yes
Step Temp E_pair E_mol TotEng Press
0         1.44  -0.63799525            0   0.78760475  -0.15028724
Averages over the last 51 of 101 rows, steps 5000 to 10000:
Temp E_pair E_mol TotEng Press
1.64926 -1.71426 0 -0.0814892 0.247397
Loop time of 1.20904 on 1 procs for 10000 steps with 100 atoms

undump 2
