LAMMPS (22 Aug 2018)
dimension 2
boundary p s p
atom_style atomic
neighbor 0.3 bin
neigh_modify delay 5
lattice hex 0.7
Lattice spacing in x,y,z = 1.28436 2.22457 1.28436
region box block 0 20 0 10 -0.25 0.25
create_box 3 box
Created orthogonal box = (0 0 -0.321089) to (25.6871 22.2457 0.321089)
create_atoms 1 box
Created 420 atoms
  Time spent = 0.000324011 secs
mass 1 1.0
mass 2 1.0
mass 3 1.0
pair_style lj/cut 1.12246
pair_coeff * * 1.0 1.0 1.12246
region 1 block INF INF INF 1.25 INF INF
group lower region 1
60 atoms in group lower
region 2 block INF INF 8.75 INF INF INF
group upper region 2
60 atoms in group upper
group boundary union lower upper
120 atoms in group boundary
group flow subtract all boundary
300 atoms in group flow
set group lower type 2
  60 settings made for type
set group upper type 3
  60 settings made for type
compute mobile flow temp
velocity flow create 1.0 482748 temp mobile
fix 1 all nve
fix 2 flow temp/rescale 200 1.0 1.0 0.02 1.0
fix_modify 2 temp mobile
velocity lower set 0.0 0.0 0.0
velocity upper set 3.0 0.0 0.0
fix 3 boundary setforce 0.0 0.0 0.0
fix 4 all enforce2d
dump 1 all atom 500 dump.flow
dump 3 all movie 100 mov.mp4 type type zoom 1.6 adiam 1
dump_modify 3 pad 5
thermo 500
thermo_modify temp mobile
timestep 0.003
run 10000
  update every 1 steps, delay 5 steps, check yes
Step Temp E_pair E_mol TotEng Press Volume
0            1            0            0   0.71190476   0.52314537    571.54286
Averages over the last 11 of 21 rows, steps 5000 to 10000:
Temp E_pair E_mol TotEng Press Volume
1.02471 -0.439573 0 0.289923 2.50733 571.543
Loop time of 0.987838 on 1 procs for 10000 steps with 420 atoms

undump 3
