LAMMPS (22 Aug 2018)
units lj
atom_style sphere
boundary f f f
dimension 3
comm_modify vel yes
region box block -10 10 -10 10 -10 10 units box
create_box 2 box
Created orthogonal box = (-10 -10 -10) to (10 10 10)
pair_style hybrid gran/hooke 4000.0 NULL 100.0 NULL 0.5 1
pair_coeff * * gran/hooke
region container block -6 6 -6 6 -6 6 units box
fix container all wall/gran/region hooke/history 4000.0 NULL 100.0 NULL 0.5 1 region container
neighbor 0.3 bin
neigh_modify delay 0 every 1 check yes
fix 2 all nve/sphere
fix 3 all gravity 1.0 vector 0 0 -1
region slab block -2 2 -2 2 -2 2 units box
fix ins all pour 100 2 4767548 vol 0.4 10 diam one 1.0 region slab ignore
Particle insertion: 48 every 566 steps, 100 by step 1133
compute 1 all temp
compute_modify 1 dynamic/dof yes
compute 2 all temp/sphere
compute_modify 2 dynamic/dof yes
dump 1 all movie 100 mov.mp4 type type zoom 1.4 adiam 1.0 box no 0.0 axes yes 0.9 0.03
dump_modify 1 pad 5
thermo 100
thermo_style custom step atoms temp c_1 c_2 press
thermo_modify lost ignore
compute_modify thermo_temp dynamic/dof yes
timestep 0.005
run 5000
  update every 1 steps, delay 0 steps, check yes
Step Atoms Temp c_1 c_2 Press
0        0            0            0            0            0
Averages over the last 26 of 51 rows, steps 2500 to 5000:
Atoms Temp c_1 c_2 Press
100 0.00782797 0.00782797 0.00605222 0.000340125
Loop time of 0.281001 on 1 procs for 5000 steps with 100 atoms

region container delete
variable theta equal (step-5000)*(4.0*PI/5000)
region container block -6 6 -6 6 -6 6 units box rotate v_theta 0 0 0 0 0 1
run 5000
Step Atoms Temp c_1 c_2 Press
5000      100 0.00029147593 0.00029147593 0.00040682023 7.6776352e-05
Averages over the last 26 of 51 rows, steps 7500 to 10000:
Atoms Temp c_1 c_2 Press
100 1.35405 1.35405 0.67741 0.0218346
Loop time of 0.368354 on 1 procs for 5000 steps with 100 atoms

region container delete
region container block -6 6 -6 6 -6 6 units box
run 5000
Step Atoms Temp c_1 c_2 Press
10000      100    1.3707863    1.3707863   0.68529829  0.022158711
Averages over the last 26 of 51 rows, steps 12500 to 15000:
Atoms Temp c_1 c_2 Press
100 0.000661865 0.000661865 0.000882394 2.36872e-05
Loop time of 0.277809 on 1 procs for 5000 steps with 100 atoms

region container delete
variable theta equal (step-15000)*(4.0*PI/5000)
region container block -6 6 -6 6 -6 6 units box rotate v_theta 0 0 0 1 1 1
run 5000
Step Atoms Temp c_1 c_2 Press
15000      100 0.00033214079 0.00033214079 0.00051147028 4.1102422e-06
Averages over the last 26 of 51 rows, steps 17500 to 20000:
Atoms Temp c_1 c_2 Press
100 3.79504 3.79504 2.03674 0.0535337
Loop time of 0.34263 on 1 procs for 5000 steps with 100 atoms

region container delete
region container block -6 6 -6 6 -6 6 units box
run 5000
Step Atoms Temp c_1 c_2 Press
20000      100    3.8049651    3.8049651    2.0683452   0.05118853
Averages over the last 26 of 51 rows, steps 22500 to 25000:
Atoms Temp c_1 c_2 Press
100 0.00431699 0.00431699 0.00366548 0.000209046
Loop time of 0.252612 on 1 procs for 5000 steps with 100 atoms

undump 1
