LAMMPS (22 Aug 2018)
units lj
dimension 2
atom_style body rounded/polygon 1 6
atom_modify map array
read_data data.squares
  orthogonal box = (0 0 -0.5) to (12 12 0.5)
  reading atoms ...
  2 atoms
  2 bodies
variable r index 4
variable steps index 10000
variable T index 0.5
variable P index 0.1
variable seed index 980411
replicate $r $r 1
replicate 4 $r 1
replicate 4 4 1
  orthogonal box = (0 0 -0.5) to (48 48 0.5)
  32 atoms
  Time spent = 0.000102043 secs
velocity all create 0.5 980411 dist gaussian mom yes rot yes
variable cut_inner equal 0.5
variable k_n equal 100
variable k_na equal 2
variable c_n equal 1
variable c_t equal 1
variable mu equal 0.1
variable delta_ua equal 0.5
pair_style body/rounded/polygon 1 1 0.1 0.5 0.5
pair_coeff * * 100 2
comm_modify vel yes
neighbor 0.5 bin
neigh_modify every 1 delay 0 check yes
fix 1 all npt/body temp $T $T 1.0 x 0.001 $P 1.0 y 0.001 $P 1.0 couple xy fixedpoint 0 0 0
fix 1 all npt/body temp 0.5 $T 1.0 x 0.001 $P 1.0 y 0.001 $P 1.0 couple xy fixedpoint 0 0 0
fix 1 all npt/body temp 0.5 0.5 1.0 x 0.001 $P 1.0 y 0.001 $P 1.0 couple xy fixedpoint 0 0 0
fix 1 all npt/body temp 0.5 0.5 1.0 x 0.001 0.1 1.0 y 0.001 $P 1.0 couple xy fixedpoint 0 0 0
fix 1 all npt/body temp 0.5 0.5 1.0 x 0.001 0.1 1.0 y 0.001 0.1 1.0 couple xy fixedpoint 0 0 0
fix 2 all enforce2d
compute 1 all body/local id 1 2 3
dump 1 all local 1000 dump.polygon.* index c_1[1] c_1[2] c_1[3] c_1[4]
dump 2 all movie 1000 mov.mp4 type type zoom 1.0 adiam 1.5 body type 0 0
dump_modify 2 pad 6
thermo 1000
thermo_style custom step ke pe etotal press
timestep 0.001
run 10000
  update every 1 steps, delay 0 steps, check yes
Step KinEng PotEng TotEng Press
0     0.484375         0.25     0.734375 0.0067274306
Averages over the last 6 of 11 rows, steps 5000 to 10000:
KinEng PotEng TotEng Press
0.421569 0.306842 0.728411 0.0680638
Loop time of 0.314488 on 1 procs for 10000 steps with 32 atoms

undump 2
